simulate...


Spectre (R) Circuit Simulator
Version 16.1.0.673.isr14 64bit -- 30 Mar 2018
Copyright (C) 1989-2018 Cadence Design Systems, Inc. All rights reserved
        worldwide. Cadence and Spectre are registered trademarks of Cadence
        Design Systems, Inc. All others are the property of their respective
        holders.


Includes RSA BSAFE(R) Cryptographic or Security Protocol Software from RSA
        Security, Inc.


User: daddinos   Host: timald03   HostID: AB930422   PID: 26157

Memory  available: 90.6069 GB  physical: 203.0692 GB

Linux   : Red Hat Enterprise Linux Server release 6.10 (Santiago)
CPU Type: Intel(R) Xeon(R) CPU E5-2630 0 @ 2.30GHz
All processors running at 2299.9 MHz
        Socket: Processors (Hyperthreaded Processor)
        0:       0 ( 12 ),  2 ( 14 ),  4 ( 16 ),  6 ( 18 ),  8 ( 20 )

                10 ( 22 )
        1:       1 ( 13 ),  3 ( 15 ),  5 ( 17 ),  7 ( 19 ),  9 ( 21 )
                11 ( 23 )
        
System load averages (1min, 5min, 15min) : 5.4 %, 4.6 %, 4.5 %
Hyperthreading is enabled
HPC is enabled



Simulating `input.scs' on timald03 at 6:37:02 PM, Wed Dec 13, 2023 (process id:
        26157).

Current working directory:
        /home/users/daddinos/projet_cmos28fdsoi_12/snn_simulator/src/test/netlist_ocn

Reading file: 
        /home/users/daddinos/projet_cmos28fdsoi_12/snn_simulator/src/test/netlist_ocn/input.scs

Reading link:  /softslin/cdsmmsim16_10_673
Reading file: 
        /softl1/cdsmmsim16_10_673/tools.lnx86/spectre/etc/configs/mapsubckt.cfg

Reading file: 
        /softl1/cdsmmsim16_10_673/tools.lnx86/spectre/etc/configs/spectre.cfg

Reading file: 
        /home/users/daddinos/projet_cmos28fdsoi_12/snn_simulator/src/wang_model.va

Reading file: 
        /softl1/cdsmmsim16_10_673/tools.lnx86/spectre/etc/ahdl/constants.vams

Reading file: 
        /softl1/cdsmmsim16_10_673/tools.lnx86/spectre/etc/ahdl/disciplines.vams

Time for NDB Parsing: CPU = 234.965 ms, elapsed = 243.766 ms.

Time accumulated: CPU = 264.959 ms, elapsed = 243.773 ms.
Peak resident memory used = 49.9 Mbytes.





Warning from spectre.

    WARNING (SFE-3263): +postlayout will filter out the parasitic nodes by
        default, use savefilter=none if you need to see them.



Existing shared object for module Model is up to date.
Installed compiled interface for Model.

Reading link: 
        /softslin/cdsmmsim16_10_673/tools.lnx86/spectre/etc/ahdl/discipline.h

Reading link: 
        /softslin/cdsmmsim16_10_673/tools.lnx86/spectre/etc/ahdl/constants.h

Time for Elaboration: CPU = 50.992 ms, elapsed = 26.952 ms.

Time accumulated: CPU = 315.951 ms, elapsed = 270.871 ms.

Peak resident memory used = 58.2 Mbytes.





Time for EDB Visiting: CPU = 2 ms, elapsed = 1.28698 ms.

Time accumulated: CPU = 317.951 ms, elapsed = 272.315 ms.

Peak resident memory used = 58.9 Mbytes.





Warning from spectre during initial setup.
    WARNING (SPECTRE-8281): `all' is not a node nor an instance name.

    WARNING (SPECTRE-8286): Ignoring invalid item `all' in save statement.



Notice from spectre during initial setup.

    Multithreading is disabled due to the size of the design being too small.


Global user options:

             reltol = 0.001

            vabstol = 1e-06

            iabstol = 1e-12

               temp = 27

        multithread = on

               gmin = 1e-12

             rforce = 1

           maxnotes = 5

           maxwarns = 5

             digits = 5

               cols = 80

             pivrel = 0.001

               save = allpub

           currents = all

       saveahdlvars = selected

               tnom = 27

             scalem = 1

              scale = 1


Scoped user options:


Circuit inventory:

              nodes 2

              Model 1     

            vsource 2     


Analysis and control statement inventory:

               tran 1     


Output statements:

             .probe 0     

           .measure 0     

               save 1     





Notice from spectre during initial setup.

    0 resistors are shorted because of `rabsshort'

    Fast APS Enabled ( rcopt=3 ).



Time for parsing: CPU = 6.999 ms, elapsed = 3.9289 ms.

Time accumulated: CPU = 325.95 ms, elapsed = 276.456 ms.

Peak resident memory used = 60.3 Mbytes.



~~~~~~~~~~~~~~~~~~~~~~

Pre-Simulation Summary

~~~~~~~~~~~~~~~~~~~~~~

~~~~~~~~~~~~~~~~~~~~~~



***********************************************

Transient Analysis `tran': time = (0 s -> 5 us)

***********************************************

Trying Fast DC 0 for initial conditions..

DC simulation time: CPU = 3.999 ms, elapsed = 1.57785 ms.



Opening the PSF file ../results/psf/tran.tran.tran ...

Important parameter values:

    start = 0 s

    outputstart = 0 s

    stop = 5 us

    step = 100 ns

    maxstep = 100 ns

    minstep = 100 ns

    ic = all

    useprevic = no

    skipdc = no

    reltol = 1e-03

    abstol(V) = 1 uV
    abstol(I) = 1 pA

    temp = 27 C

    tnom = 27 C
    tempeffects = all

    errpreset = moderate

    method = traponly

    lteratio = 3.5
    relref = sigglobal

    cmin = 0 F

    gmin = 1 pS

    rabsshort = 1 mOhm




Notice from spectre during transient analysis `tran'.

    Multithreading is disabled due to the size of the design being too small.



Wildcard match summary:
               save synapse*.cell*.I nodes: 1     

Output and IC/nodeset summary:

                 save   4       (current)

                 save   2       (voltage)

                 others 1       


    tran: time = 200 ns         (4 %), step = 100 ns          (2 %)

    tran: time = 400 ns         (8 %), step = 100 ns          (2 %)

    tran: time = 700 ns        (14 %), step = 100 ns          (2 %)

    tran: time = 900 ns        (18 %), step = 100 ns          (2 %)

    tran: time = 1.2 us        (24 %), step = 100 ns          (2 %)

    tran: time = 1.4 us        (28 %), step = 100 ns          (2 %)

    tran: time = 1.7 us        (34 %), step = 100 ns          (2 %)

    tran: time = 1.9 us        (38 %), step = 100 ns          (2 %)

    tran: time = 2.2 us        (44 %), step = 100 ns          (2 %)

    tran: time = 2.4 us        (48 %), step = 100 ns          (2 %)

    tran: time = 2.7 us        (54 %), step = 100 ns          (2 %)

    tran: time = 2.9 us        (58 %), step = 100 ns          (2 %)

    tran: time = 3.2 us        (64 %), step = 100 ns          (2 %)

    tran: time = 3.4 us        (68 %), step = 100 ns          (2 %)

    tran: time = 3.7 us        (74 %), step = 100 ns          (2 %)

    tran: time = 3.9 us        (78 %), step = 100 ns          (2 %)

    tran: time = 4.2 us        (84 %), step = 100 ns          (2 %)

    tran: time = 4.4 us        (88 %), step = 100 ns          (2 %)

    tran: time = 4.7 us        (94 %), step = 100 ns          (2 %)

    tran: time = 4.9 us        (98 %), step = 100 ns          (2 %)

Number of accepted tran steps =             50



Maximum value achieved for any signal of each quantity: 

V: V(input1) = 180 mV

I: I(input_neuron1:p) = 28.95 uA

If your circuit contains signals of the same quantity that are vastly different

        in size (such as high voltage circuitry combined with low voltage

        control circuitry), you should consider specifying global option

        `bin_relref=yes'.


~~~~~~~~~~~~~~~~~~~~~~~~~~~~~~~~~

Post-Transient Simulation Summary

~~~~~~~~~~~~~~~~~~~~~~~~~~~~~~~~~

~~~~~~~~~~~~~~~~~~~~~~~~~~~~~~~~~




During simulation, the CPU load for active processors is :

        Spectre  1 (44.4 %)      3 (100.0 %)    13 (11.1 %)     

        Other    0 (52.9 %)      8 (100.0 %)    10 (11.1 %)     16 (5.3 %)

                18 (31.6 %)     20 (5.3 %)      22 (27.8 %)     

Initial condition solution time: CPU = 3.999 ms, elapsed = 1.66893 ms.

Intrinsic tran analysis time:    CPU = 16.998 ms, elapsed = 8.9879 ms.

Total time required for tran analysis `tran': CPU = 23.997 ms, elapsed =

        13.0088 ms.

Time accumulated: CPU = 365.944 ms, elapsed = 296.974 ms.

Peak resident memory used = 63.5 Mbytes.



Aggregate audit (6:37:03 PM, Wed Dec 13, 2023):

Time used: CPU = 372 ms, elapsed = 301 ms, util. = 124%.

Time spent in licensing: elapsed = 21.3 ms, percentage of total = 7.08%.

Peak memory used = 64 Mbytes.

Simulation started at: 6:37:02 PM, Wed Dec 13, 2023, ended at: 6:37:03 PM, Wed

        Dec 13, 2023, with elapsed time (wall clock): 301 ms.

spectre completes with 0 errors, 3 warnings, and 4 notices.

reading simulation data...
      ...successful.
